       2
 i =        0, time =        0.000, E =        -0.8989895985
  H         1.9834753200        3.9283434800        0.9324785600
  H         3.9348723900        1.9348570100        2.9820520400
       2
 i =        1, time =        1.000, E =        -0.9118043689
  H         1.9672248394        3.9532793926        0.9390056470
  H         3.9498749683        1.9529567724        2.9845507436
       2
 i =        2, time =        2.000, E =        -0.9090411915
  H         1.9217916790        4.0315701946        0.9514653196
  H         4.0199183636        1.9740332767        3.0190847332
       2
 i =        3, time =        3.000, E =        -0.9100974720
  H         1.9352281421        4.0515472571        0.9974504603
  H         4.0303258664        1.9537599343        3.1038395219
       2
 i =        4, time =        4.000, E =        -0.9039459156
  H         1.9895195190        4.0448575146        1.0847770888
  H         3.9823557713        1.9340025100        3.1427180685
       2
 i =        5, time =        5.000, E =        -0.9270468046
  H         1.9866089964        3.9974237715        1.1534349569
  H         3.9367165436        1.9571136144        3.2170314817
       2
 i =        6, time =        6.000, E =        -0.9030524070
  H         1.9301271704        3.9184205173        1.2636951475
  H         3.9425852636        1.9732889252        3.2579814237
       2
 i =        7, time =        7.000, E =        -0.9160843569
  H         1.9242560857        3.8643557863        1.4075222773
  H         4.0042411104        1.9493020946        3.2491687416
       2
 i =        8, time =        8.000, E =        -0.9167968209
  H         1.9754011732        3.7483425612        1.5575756612
  H         4.0215162450        1.9374117725        3.1816084612
       2
 i =        9, time =        9.000, E =        -0.9266827146
  H         1.9826201722        3.6245250532        1.7001305575
  H         3.9779340478        1.9639819579        3.1542078740
       2
 i =       10, time =       10.000, E =        -0.9423993367
  H         1.9387228128        3.5516139278        1.8075766003
  H         3.9452424220        1.9708850652        3.1749109547
       2
 i =       11, time =       11.000, E =        -0.9332050209
  H         1.9312272145        3.4159195877        1.8960502329
  H         3.9661906601        1.9449847908        3.2431034581
       2
 i =       12, time =       12.000, E =        -0.9402703822
  H         1.9744892425        3.2296045091        2.0341999797
  H         4.0213841737        1.9437737279        3.2478444111
       2
 i =       13, time =       13.000, E =        -0.9522055331
  H         1.9784231641        2.9853232513        2.1853387269
  H         4.0127126816        1.9708016914        3.1895351001
       2
 i =       14, time =       14.000, E =        -0.9621784185
  H         1.9390314185        2.7710456271        2.3381701772
  H         3.9436744398        1.9671027934        3.1543470289
       2
 i =       15, time =       15.000, E =        -0.9674522952
  H         1.9422559828        2.4915074807        2.4850247322
  H         3.9226462044        1.9390894496        3.1658799308
       2
 i =       16, time =       16.000, E =        -0.9840057347
  H         1.9845094279        2.1873523832        2.6055376634
  H         3.9239210060        1.9489309574        3.2287560765
       2
 i =       17, time =       17.000, E =        -0.9819857745
  H         1.9867832360        1.8813206605        2.6806409195
  H         3.9465169060        1.9717131599        3.2334012245
       2
 i =       18, time =       18.000, E =        -0.9871682354
  H         1.9472935152        1.5930944506        2.8119398648
  H         4.0104248616        1.9534405977        3.1761823140
       2
 i =       19, time =       19.000, E =        -0.9829601961
  H         1.9355876152        1.3664570461        2.9458651253
  H         4.0102623568        1.9301619445        3.1658492046
       2
 i =       20, time =       20.000, E =        -0.9863101557
  H         1.9752699962        1.0892874224        3.0355073620
  H         3.9467484389        1.9472283565        3.2110378978
       2
 i =       21, time =       21.000, E =        -0.9629313894
  H         1.9828526162        0.8133101551        3.1529356714
  H         3.9271074320        1.9686861533        3.2360117588
       2
 i =       22, time =       22.000, E =        -0.9652589082
  H         1.9468915162        0.6065338235        3.3238106340
  H         3.9391157563        1.9451057516        3.2031423223
       2
 i =       23, time =       23.000, E =        -0.9610532872
  H         1.9349333954        0.3721811270        3.5511943525
  H         3.9977566548        1.9304029086        3.1712666340
       2
 i =       24, time =       24.000, E =        -0.9481663614
  H         1.9683335494        0.1875081993        3.7178780742
  H         4.0200487869        1.9537188893        3.1974856620
       2
 i =       25, time =       25.000, E =        -0.9569152294
  H         1.9729664397        0.0668390666        3.8246523977
  H         3.9799513595        1.9689652495        3.2397701799
       2
 i =       26, time =       26.000, E =        -0.9367269516
  H         1.9414919655       -0.0216082402        3.9358422205
  H         3.9450549179        1.9438813757        3.2277221410
       2
 i =       27, time =       27.000, E =        -0.9318535835
  H         1.9417324721       -0.1486068171        4.0974279911
  H         3.9633275046        1.9350820778        3.1705122145
       2
 i =       28, time =       28.000, E =        -0.9390559598
  H         1.9723739076       -0.2529831144        4.3122831473
  H         4.0211577688        1.9613117910        3.1733046945
       2
 i =       29, time =       29.000, E =        -0.9242971090
  H         1.9658525831       -0.3147136251        4.4883842285
  H         4.0178681411        1.9662678396        3.2343531415
       2
 i =       30, time =       30.000, E =        -0.9355123749
  H         1.9332807855       -0.3792127572        4.6013433894
  H         3.9549149165        1.9400250842        3.2440847431
       2
 i =       31, time =       31.000, E =        -0.9223596216
  H         1.9450662808       -0.4670750391        4.7279281627
  H         3.9430178566        1.9419546515        3.1999418891
       2
 i =       32, time =       32.000, E =        -0.9331093108
  H         1.9786998573       -0.5493964412        4.9085946877
  H         3.9855541331        1.9685403438        3.1670685824
       2
 i =       33, time =       33.000, E =        -0.9174654436
  H         1.9655661739       -0.6250378714        5.1141619528
  H         4.0226723571        1.9614675517        3.1946908510
       2
 i =       34, time =       34.000, E =        -0.9256361402
  H         1.9261375091       -0.7003641632        5.2573787109
  H         4.0000289730        1.9357422530        3.2442824812
       2
 i =       35, time =       35.000, E =        -0.9105403200
  H         1.9398800765       -0.7819380212        5.3512455840
  H         3.9410106514        1.9483135740        3.2385432741
       2
 i =       36, time =       36.000, E =        -0.9160060960
  H         1.9861539814       -0.8653594092        5.5012171890
  H         3.9369407569        1.9734075539        3.1770768582
       2
 i =       37, time =       37.000, E =        -0.9202942948
  H         1.9782146552       -0.9355478005        5.7048851800
  H         3.9851635484        1.9574418521        3.1673508632
       2
 i =       38, time =       38.000, E =        -0.9187150688
  H         1.9227727327       -1.0022782752        5.9029348459
  H         4.0292110609        1.9333713463        3.2144176794
       2
 i =       39, time =       39.000, E =        -0.9154036004
  H         1.9240986563       -1.1001077663        6.0434299819
  H         4.0151217513        1.9530175309        3.2347933407
       2
 i =       40, time =       40.000, E =        -0.9208152115
  H         1.9819511873       -1.2139883119        6.1313059958
  H         3.9442275084        1.9754968289        3.1980929499
       2
 i =       41, time =       41.000, E =        -0.9122868734
  H         1.9886436466       -1.2719786097        6.2792436499
  H         3.9281991347        1.9557345369        3.1706264399
       2
 i =       42, time =       42.000, E =        -0.9358769180
  H         1.9397269142       -1.3783969240        6.4837101653
  H         3.9536534329        1.9336011169        3.1962663082
       2
 i =       43, time =       43.000, E =        -0.9235094274
  H         1.9242735881       -1.4362232886        6.6920359118
  H         4.0301758595        1.9568038852        3.2334364174
       2
 i =       44, time =       44.000, E =        -0.9271784116
  H         1.9665845669       -1.5528103759        6.8515198430
  H         4.0474938176        1.9761051190        3.2109599908
       2
 i =       45, time =       45.000, E =        -0.9494001432
  H         1.9821623842       -1.6514171693        6.9673393596
  H         4.0278132242        1.9541576749        3.1646422824
       2
 i =       46, time =       46.000, E =        -0.9410082592
  H         1.9498701426       -1.7309720289        7.0566509654
  H         3.9456423035        1.9362774416        3.1707313701
       2
 i =       47, time =       47.000, E =        -0.9442184769
  H         1.9318009330       -1.8440020306        7.2011838891
  H         3.9154607750        1.9623009891        3.2267962243
       2
 i =       48, time =       48.000, E =        -0.9568399362
  H         1.9664858607       -1.9074529181        7.3813394501
  H         3.8987779891        1.9745310591        3.2280793755
       2
 i =       49, time =       49.000, E =        -0.9712293744
  H         1.9805716209       -2.0345381103        7.6242518463
  H         3.8553280903        1.9503909082        3.1727534331
       2
 i =       50, time =       50.000, E =        -0.9748335219
  H         1.9544535082       -2.1775104929        7.8132693914
  H         3.7472471913        1.9426443662        3.1662864338
       2
 i =       51, time =       51.000, E =        -1.0084560573
  H         1.9426613004       -2.3065292287        8.0062175980
  H         3.6156486783        1.9701896295        3.2140090029
       2
 i =       52, time =       52.000, E =        -1.0300185457
  H         1.9781826691       -2.3877032414        8.2578774474
  H         3.5058258928        1.9722547318        3.2333612387
       2
 i =       53, time =       53.000, E =        -1.0457558190
  H         1.9924357198       -2.5381935429        8.4588982979
  H         3.3897733641        1.9472055459        3.1991352422
       2
 i =       54, time =       54.000, E =        -1.0836669989
  H         1.9803416243       -2.7581328492        8.6949293745
  H         3.1871894871        1.9486781460        3.1806946920
       2
 i =       55, time =       55.000, E =        -1.0889789256
  H         1.9528166345       -2.9370438895        8.8659437159
  H         2.9835819999        1.9693995785        3.2230113656
       2
 i =       56, time =       56.000, E =        -1.1183352522
  H         1.9615907915       -3.0617936866        8.9548388891
  H         2.7778782351        1.9577272553        3.2457024910
       2
 i =       57, time =       57.000, E =        -1.1130392869
  H         1.9818731375       -3.1518461222        9.0685922835
  H         2.4859321163        1.9345597481        3.2376942363
       2
 i =       58, time =       58.000, E =        -1.1278297394
  H         1.9663340896       -3.2887896314        9.1652324714
  H         2.1466591224        1.9480759518        3.2024364144
       2
 i =       59, time =       59.000, E =        -1.1115255429
  H         1.9279135365       -3.4321022010        9.1768995479
  H         1.7463621577        1.9643525901        3.2045005485
       2
 i =       60, time =       60.000, E =        -1.1014207328
  H         1.9326396073       -3.5462714309        9.0946054079
  H         1.4069761112        1.9403610675        3.2399243382
       2
 i =       61, time =       61.000, E =        -1.0636405107
  H         1.9604854903       -3.5863718207        9.0372466008
  H         1.0918387400        1.9271177147        3.2487747409
       2
 i =       62, time =       62.000, E =        -1.0466827017
  H         1.9425053774       -3.5923808331        8.9059555851
  H         0.8035566594        1.9483821548        3.2264726646
       2
 i =       63, time =       63.000, E =        -1.0279466579
  H         1.9186362072       -3.5804083535        8.7575775837
  H         0.5937222509        1.9657726401        3.1757752857
       2
 i =       64, time =       64.000, E =        -1.0305600274
  H         1.9236869744       -3.5256933072        8.6154477537
  H         0.3615733388        1.9415415087        3.1909716065
       2
 i =       65, time =       65.000, E =        -1.0164863017
  H         1.9550960938       -3.4394253861        8.5112067673
  H         0.2128634564        1.9340343327        3.2418166213
       2
 i =       66, time =       66.000, E =        -1.0085369994
  H         1.9570577281       -3.3524876713        8.4142961948
  H         0.1348202952        1.9606622745        3.2393277469
       2
 i =       67, time =       67.000, E =        -0.9948254394
  H         1.9268981081       -3.2776814679        8.2702297462
  H         0.0365051502        1.9645418796        3.1814053032
       2
 i =       68, time =       68.000, E =        -1.0007773120
  H         1.9280262021       -3.1918975065        8.1019020450
  H         0.0175102768        1.9387969175        3.1696115339
       2
 i =       69, time =       69.000, E =        -1.0120449263
  H         1.9579723554       -3.1308793779        7.8912611793
  H         0.0565876869        1.9433607667        3.2141541576
       2
 i =       70, time =       70.000, E =        -1.0018961857
  H         1.9561423629       -3.0830251172        7.6873148226
  H         0.1589644073        1.9689444377        3.2290745697
       2
 i =       71, time =       71.000, E =        -1.0128390732
  H         1.9250118068       -2.9774167524        7.5497676363
  H         0.2880106009        1.9585228932        3.1846131900
       2
 i =       72, time =       72.000, E =        -1.0288533576
  H         1.9216803299       -2.8941919119        7.4792144514
  H         0.3930152180        1.9366472989        3.1684007268
       2
 i =       73, time =       73.000, E =        -1.0292600812
  H         1.9466974669       -2.8071138320        7.3806314246
  H         0.5184818769        1.9538561715        3.1953381783
       2
 i =       74, time =       74.000, E =        -1.0478043182
  H         1.9596492754       -2.7136765266        7.3580959867
  H         0.7211122946        1.9742811961        3.2235168327
       2
 i =       75, time =       75.000, E =        -1.0674288803
  H         1.9286982535       -2.6720637812        7.3872741951
  H         0.9112230972        1.9587880961        3.1889181706
       2
 i =       76, time =       76.000, E =        -1.0852110425
  H         1.9162333988       -2.6764303889        7.4974075049
  H         1.0791412506        1.9414790870        3.1614681531
       2
 i =       77, time =       77.000, E =        -1.1327097359
  H         1.9323004288       -2.7372102951        7.6237362716
  H         1.2430356552        1.9650299867        3.1675905052
       2
 i =       78, time =       78.000, E =        -1.1420786097
  H         1.9681062677       -2.8005221521        7.7112794769
  H         1.4110690580        1.9715051687        3.2131450079
       2
 i =       79, time =       79.000, E =        -1.1100834652
  H         1.9676610123       -2.8381716671        7.8462558241
  H         1.5903437908        1.9403564085        3.2328527743
       2
 i =       80, time =       80.000, E =        -0.9973697464
  H         2.0045253147       -2.8837357200        7.9637092192
  H         1.7482105283        1.8964459109        3.2705746023
       2
 i =       81, time =       81.000, E =        -1.1305429547
  H         2.1663336137       -2.7943580612        7.8608102182
  H         1.7829099890        1.7471782540        3.4941049759
       2
 i =       82, time =       82.000, E =        -1.0756292729
  H         2.2739534173       -2.6797812063        7.8308551393
  H         1.8578521278        1.6620816841        3.7439896601
       2
 i =       83, time =       83.000, E =        -1.0385443273
  H         2.3471187448       -2.6366414315        7.8717981655
  H         1.9090729986        1.5551057898        3.9475674985
       2
 i =       84, time =       84.000, E =        -1.0274600888
  H         2.4158025084       -2.5749419604        7.9824285741
  H         2.0292944456        1.4535395403        4.1800055964
       2
 i =       85, time =       85.000, E =        -1.0137249891
  H         2.4897764313       -2.5429116963        8.1466671015
  H         2.1516026765        1.4297966969        4.3266065613
       2
 i =       86, time =       86.000, E =        -1.0575934052
  H         2.5325417694       -2.5921923901        8.3781629710
  H         2.2214232760        1.4757983084        4.3923526418
       2
 i =       87, time =       87.000, E =        -1.0658062624
  H         2.6220128614       -2.6357205277        8.5942052532
  H         2.3556422445        1.5678650905        4.4671899456
       2
 i =       88, time =       88.000, E =        -1.1166958252
  H         2.6435374931       -2.6628367596        8.8374814481
  H         2.5236075872        1.6997879315        4.4792990233
       2
 i =       89, time =       89.000, E =        -1.1146743335
  H         2.6328068105       -2.7246831155        9.0754231012
  H         2.7395142812        1.8115463467        4.4197406979
       2
 i =       90, time =       90.000, E =        -1.1393954544
  H         2.5570967062       -2.7267975971        9.2768406750
  H         2.9591219205        1.8104696686        4.4750352027
       2
 i =       91, time =       91.000, E =        -1.1225100106
  H         2.4878318698       -2.7049070445        9.4972973084
  H         3.1893228155        1.7386005017        4.5034979152
       2
 i =       92, time =       92.000, E =        -1.0911478671
  H         2.4123618468       -2.7540785222        9.6571849918
  H         3.4249088188        1.7247784243        4.4797074805
       2
 i =       93, time =       93.000, E =        -1.0596949509
  H         2.3955056728       -2.7805745676        9.7543664412
  H         3.5919600638        1.7438903084        4.4102933066
       2
 i =       94, time =       94.000, E =        -1.0507245880
  H         2.4656039343       -2.7663838999        9.8644359641
  H         3.7161381689        1.8278555092        4.4106200902
       2
 i =       95, time =       95.000, E =        -1.0353606462
  H         2.5126993676       -2.7075305479       10.0023879837
  H         3.7465681086        1.8676548575        4.4819371935
       2
 i =       96, time =       96.000, E =        -1.0522287185
  H         2.6223645050       -2.7139752627       10.1287920887
  H         3.7348328605        1.9022246633        4.5129389295
       2
 i =       97, time =       97.000, E =        -1.0846793309
  H         2.7085546976       -2.7752380343       10.1823986425
  H         3.6561147033        2.0015993860        4.5229751051
       2
 i =       98, time =       98.000, E =        -1.1032127439
  H         2.8789981512       -2.7858428054       10.2616953366
  H         3.5800131252        2.0544190543        4.5374524977
       2
 i =       99, time =       99.000, E =        -1.1357085979
  H         3.1015234954       -2.7522047327       10.2615341256
  H         3.4487443825        2.1607417092        4.5932164362
       2
 i =      100, time =      100.000, E =        -1.0789671142
  H         3.2759093636       -2.6807233667       10.2133526603
  H         3.3462027415        2.2155829140        4.6816935377
